#RADIOSS STARTER
# Copyright (C) 2022 Altair Engineering Inc. ("Holder")
# Model is licensed by Holder under CC BY-NC 4.0
# (https://creativecommons.org/licenses/by-nc/4.0/legalcode).
#---1----|----2----|----3----|----4----|----5----|----6----|----7----|----8----|----9----|---10----|
/BEGIN
Bumper_Beam_AP_meshed                                                           
      2022         0
                  kg                  mm                  ms
                  kg                  mm                  ms
#---1----|----2----|----3----|----4----|----5----|----6----|----7----|----8----|----9----|---10----|
#-  1. CONTROL CARDS:
#---1----|----2----|----3----|----4----|----5----|----6----|----7----|----8----|----9----|---10----|
/TITLE

#---1----|----2----|----3----|----4----|----5----|----6----|----7----|----8----|----9----|---10----|
#-  2. MATERIALS:
#---1----|----2----|----3----|----4----|----5----|----6----|----7----|----8----|----9----|---10----|
/MAT/PLAS_JOHNS/1
Steel_DP600
#              RHO_I
             7.85E-6                   0
#                  E                  Nu     Iflag
                 210                  .3         0
#                  a                   b                   n           EPS_p_max            SIG_max0
                  .3                  .3                  .3                   0                   0
#                  c           EPS_DOT_0       ICC   Fsmooth               F_cut               Chard
                   0                   0         0         0                   0                   0
#                  m              T_melt              rhoC_p                 T_r
                   0                   0                   0                   0
#---1----|----2----|----3----|----4----|----5----|----6----|----7----|----8----|----9----|---10----|
/MAT/PLAS_JOHNS/2
Steel_DP1000
#              RHO_I
             7.85E-6                   0
#                  E                  Nu     Iflag
                 210                  .3         0
#                  a                   b                   n           EPS_p_max            SIG_max0
                  .5                  .5                  .5                   0                   0
#                  c           EPS_DOT_0       ICC   Fsmooth               F_cut               Chard
                   0                   0         0         0                   0                   0
#                  m              T_melt              rhoC_p                 T_r
                   0                   0                   0                   0
/FAIL/BIQUAD/2
#                 C1                  C2                  C3                  C4                  C5
                   0                   0                   0                   0                   0
#       P_thick_fail    M_Flag    S_Flag          Inst_start          El_FUNC_ID       Ref.El_Length
                   0         2         0                   0                   0                   0
#---1----|----2----|----3----|----4----|----5----|----6----|----7----|----8----|----9----|---10----|
/MAT/PLAS_JOHNS/3
Steel_DP1000
#              RHO_I
             7.85E-6                   0
#                  E                  Nu     Iflag
                 210                  .3         0
#                  a                   b                   n           EPS_p_max            SIG_max0
                  .5                  .5                  .5                   0                   0
#                  c           EPS_DOT_0       ICC   Fsmooth               F_cut               Chard
                   0                   0         0         0                   0                   0
#                  m              T_melt              rhoC_p                 T_r
                   0                   0                   0                   0
/FAIL/BIQUAD/3
#                 C1                  C2                  C3                  C4                  C5
                   0                   0                   0                   0                   0
#       P_thick_fail    M_Flag    S_Flag          Inst_start          El_FUNC_ID       Ref.El_Length
                   0         2         0                   0                   0                   0
#---1----|----2----|----3----|----4----|----5----|----6----|----7----|----8----|----9----|---10----|
#-  3. NODES:
#---1----|----2----|----3----|----4----|----5----|----6----|----7----|----8----|----9----|---10----|
/NODE
        48                 -40     -3.15544362E-30                  75
        49    -39.977531474559    -9.9789830563853                  75
        50    -39.926531172319    -19.957480673934                  75
        51    -39.847273542051    -29.935462978562                  75
        52     -39.74003354748    -39.912900083585                  75
        53    -39.605086659364    -49.889762090629                  75
        54    -39.442708847546    -59.866019090523                  75
        55    -39.253176572963    -69.841641164218                  75
        56    -39.036766779628    -79.816598383688                  75
        57    -38.793756886577    -89.790860812839                  75
        58    -38.524424779775    -99.764398508418                  75
        59    -38.229048804003    -109.73718152092                  75
        60    -37.907907754702     -119.7091798955                  75
        61    -37.561280869793    -129.68036367289                  75
        62    -37.189447821464    -139.65070289029                  75
        63    -36.792688707928     -149.6201675823                  75
        64    -36.371284045149    -159.58872778183                  75
        65    -35.925514758549    -169.55635352099                  75
        66    -35.455662174673    -179.52301483203                  75
        67    -34.962008012844    -189.48868174824                  75
# ... 13812 like lines cut
#---1----|----2----|----3----|----4----|----5----|----6----|----7----|----8----|----9----|---10----|
#-  4. BOUNDARY CONDITIONS:
#---1----|----2----|----3----|----4----|----5----|----6----|----7----|----8----|----9----|---10----|
/BCS/1
Boundary_condition
#  Tra rot   skew_ID  grnod_ID
   011 111         0        20
/GRNOD/NODE/20
BCS_group_20_of_NODE
     14153
#---1----|----2----|----3----|----4----|----5----|----6----|----7----|----8----|----9----|---10----|
#-  5. PARTS:
#---1----|----2----|----3----|----4----|----5----|----6----|----7----|----8----|----9----|---10----|
/PART/4
crash_box_upper
         1         1        12
#---1----|----2----|----3----|----4----|----5----|----6----|----7----|----8----|----9----|---10----|
# SH3N elements of /PART/4/crash_box_upper:
#---1----|----2----|----3----|----4----|----5----|----6----|----7----|----8----|----9----|---10----|
/SH3N/4
      5873      6158      6157      6161
      5931      6201      6200      6204
      5971      6228      6229      6227
      6040      6291      6292      6281
      6055      6303      6304      6275
#---1----|----2----|----3----|----4----|----5----|----6----|----7----|----8----|----9----|---10----|
# SHELL elements of /PART/4/crash_box_upper:
#---1----|----2----|----3----|----4----|----5----|----6----|----7----|----8----|----9----|---10----|
/SHELL/4
      5691      5966      5968      5969      5965
      5692      5965      5969      5961      5962
      5693      5968      5955      5956      5969
      5694      5969      5956      5957      5961
      5695      5922      5923      5970      5967
      5696      5967      5970      5968      5966
      5697      5923      5924      5954      5970
      5698      5970      5954      5955      5968
      5699      5917      5971      5973      5916
      5700      5916      5973      5964      5915
      5701      5971      5972      5974      5973
      5702      5973      5974      5963      5964
      5703      5972      5966      5965      5974
      5704      5974      5965      5962      5963
      5705      5919      5920      5975      5918
      5706      5918      5975      5971      5917
      5707      5920      5921      5976      5975
      5708      5975      5976      5972      5971
      5709      5921      5922      5967      5976
      5710      5976      5967      5966      5972
# ... 569 like lines cut
#---1----|----2----|----3----|----4----|----5----|----6----|----7----|----8----|----9----|---10----|
/PART/5
crash_box_lower
         1         1        12
#---1----|----2----|----3----|----4----|----5----|----6----|----7----|----8----|----9----|---10----|
# SH3N elements of /PART/5/crash_box_lower:
#---1----|----2----|----3----|----4----|----5----|----6----|----7----|----8----|----9----|---10----|
/SH3N/5
      6416      6745      6744      6702
      6451      6773      6774      6761
      6511      6826      6825      6813
      6538      6845      6844      6804
      6578      6873      6874      6872
      6605      6890      6891      6889
#---1----|----2----|----3----|----4----|----5----|----6----|----7----|----8----|----9----|---10----|
# SHELL elements of /PART/5/crash_box_lower:
#---1----|----2----|----3----|----4----|----5----|----6----|----7----|----8----|----9----|---10----|
/SHELL/5
      6251      6563      6565      6559      6560
      6252      6565      6555      6556      6559
      6253      6526      6527      6566      6564
      6254      6564      6566      6565      6563
      6255      6527      6528      6554      6566
      6256      6566      6554      6555      6565
      6257      6560      6561      6567      6563
      6258      6563      6567      6568      6564
      6259      6564      6568      6525      6526
      6260      6521      6569      6562      6520
      6261      6569      6567      6561      6562
      6262      6523      6524      6570      6522
      6263      6522      6570      6569      6521
      6264      6524      6525      6568      6570
      6265      6570      6568      6567      6569
      6266      6571      6573      6513      6514
      6267      6573      6558      6512      6513
      6268      6560      6559      6574      6572
      6269      6572      6574      6573      6571
      6270      6559      6556      6557      6574
# ... 503 like lines cut
#---1----|----2----|----3----|----4----|----5----|----6----|----7----|----8----|----9----|---10----|
/PART/6
BumperBeam_upper
         2         2        11
#---1----|----2----|----3----|----4----|----5----|----6----|----7----|----8----|----9----|---10----|
# SH3N elements of /PART/6/BumperBeam_upper:
#---1----|----2----|----3----|----4----|----5----|----6----|----7----|----8----|----9----|---10----|
/SH3N/6
      1850      2130      2128      2127
#---1----|----2----|----3----|----4----|----5----|----6----|----7----|----8----|----9----|---10----|
# SHELL elements of /PART/6/BumperBeam_upper:
#---1----|----2----|----3----|----4----|----5----|----6----|----7----|----8----|----9----|---10----|
/SHELL/6
      1633      1949      1951      1953      1948
      1634      1948      1953      1944      1945
      1635      1951      1952      1954      1953
      1636      1953      1954      1943      1944
      1637      1952      1937      1938      1954
      1638      1954      1938      1939      1943
      1639      1809      1810      1955      1950
      1640      1950      1955      1951      1949
      1641      1810      1811      1956      1955
      1642      1955      1956      1952      1951
      1643      1811      1812      1936      1956
      1644      1956      1936      1937      1952
      1645      1804      1957      1959      1803
      1646      1803      1959      1947      1802
      1647      1957      1958      1960      1959
      1648      1959      1960      1946      1947
      1649      1958      1949      1948      1960
      1650      1960      1948      1945      1946
      1651      1806      1807      1961      1805
      1652      1805      1961      1957      1804
# ... 793 like lines cut
#---1----|----2----|----3----|----4----|----5----|----6----|----7----|----8----|----9----|---10----|
/PART/7
BumperBeam_mid
         2         2        11
#---1----|----2----|----3----|----4----|----5----|----6----|----7----|----8----|----9----|---10----|
# SH3N elements of /PART/7/BumperBeam_mid:
#---1----|----2----|----3----|----4----|----5----|----6----|----7----|----8----|----9----|---10----|
/SH3N/7
      5130      5419      5421      5416
#---1----|----2----|----3----|----4----|----5----|----6----|----7----|----8----|----9----|---10----|
# SHELL elements of /PART/7/BumperBeam_mid:
#---1----|----2----|----3----|----4----|----5----|----6----|----7----|----8----|----9----|---10----|
/SHELL/7
      4877      5222      5224      5219      5220
      4878      5224      5215      5216      5219
      4879      5208      5209      5225      5223
      4880      5223      5225      5224      5222
      4881      5209      5210      5214      5225
      4882      5225      5214      5215      5224
      4883      1622      5226      5221      1621
      4884      5226      5222      5220      5221
      4885      1624      5207      5227      1623
      4886      1623      5227      5226      1622
      4887      5207      5208      5223      5227
      4888      5227      5223      5222      5226
      4889      5228      5230      4975      4976
      4890      5230      5218      4974      4975
      4891      5220      5219      5231      5229
      4892      5229      5231      5230      5228
      4893      5219      5216      5217      5231
      4894      5231      5217      5218      5230
      4895      1619      5232      4977       276
      4896      5232      5228      4976      4977
# ... 793 like lines cut
#---1----|----2----|----3----|----4----|----5----|----6----|----7----|----8----|----9----|---10----|
/PART/8
BumperBeam_lower
         2         2        11
#---1----|----2----|----3----|----4----|----5----|----6----|----7----|----8----|----9----|---10----|
# SH3N elements of /PART/8/BumperBeam_lower:
#---1----|----2----|----3----|----4----|----5----|----6----|----7----|----8----|----9----|---10----|
/SH3N/8
      3024      3252      3250      3249
#---1----|----2----|----3----|----4----|----5----|----6----|----7----|----8----|----9----|---10----|
# SHELL elements of /PART/8/BumperBeam_lower:
#---1----|----2----|----3----|----4----|----5----|----6----|----7----|----8----|----9----|---10----|
/SHELL/8
      2447      2770      2772      2774      2769
      2448      2769      2774      2765      2766
      2449      2772      2773      2775      2774
      2450      2774      2775      2764      2765
      2451      2773      2758      2759      2775
      2452      2775      2759      2760      2764
      2453      2630      2631      2776      2771
      2454      2771      2776      2772      2770
      2455      2631      2632      2777      2776
      2456      2776      2777      2773      2772
      2457      2632      2633      2757      2777
      2458      2777      2757      2758      2773
      2459      2625      2778      2780      2624
      2460      2624      2780      2768      2623
      2461      2778      2779      2781      2780
      2462      2780      2781      2767      2768
      2463      2779      2770      2769      2781
      2464      2781      2769      2766      2767
      2465      2627      2628      2782      2626
      2466      2626      2782      2778      2625
# ... 793 like lines cut
#---1----|----2----|----3----|----4----|----5----|----6----|----7----|----8----|----9----|---10----|
/PART/9
BumperBeam_front
         2         2        11
#---1----|----2----|----3----|----4----|----5----|----6----|----7----|----8----|----9----|---10----|
# SHELL elements of /PART/9/BumperBeam_front:
#---1----|----2----|----3----|----4----|----5----|----6----|----7----|----8----|----9----|---10----|
/SHELL/9
         1       353       355       357       352
         2       352       357       348       349
         3       355       356       358       357
         4       357       358       347       348
         5       356       341       342       358
         6       358       342       343       347
         7       331       332       359       354
         8       354       359       355       353
         9       332       333       360       359
        10       359       360       356       355
        11       333       334       340       360
        12       360       340       341       356
        13       319       361       363       318
        14       318       363       351       317
        15       361       362       364       363
        16       363       364       350       351
        17       362       353       352       364
        18       364       352       349       350
        19       321       329       365       320
        20       320       365       361       319
# ... 1612 like lines cut
#---1----|----2----|----3----|----4----|----5----|----6----|----7----|----8----|----9----|---10----|
/PART/10
BumperBeam_rear
         2         2        11
#---1----|----2----|----3----|----4----|----5----|----6----|----7----|----8----|----9----|---10----|
# SHELL elements of /PART/10/BumperBeam_rear:
#---1----|----2----|----3----|----4----|----5----|----6----|----7----|----8----|----9----|---10----|
/SHELL/10
      3261      3540      3542      3544      3539
      3262      3539      3544      3535      3536
      3263      3542      3543      3545      3544
      3264      3544      3545      3534      3535
      3265      3543      3528      3529      3545
      3266      3545      3529      3530      3534
      3267      3518      3519      3546      3541
      3268      3541      3546      3542      3540
      3269      3519      3520      3547      3546
      3270      3546      3547      3543      3542
      3271      3520      3521      3527      3547
      3272      3547      3527      3528      3543
      3273      3506      3548      3550      3505
      3274      3505      3550      3538      3504
      3275      3548      3549      3551      3550
      3276      3550      3551      3537      3538
      3277      3549      3540      3539      3551
      3278      3551      3539      3536      3537
      3279      3508      3516      3552      3507
      3280      3507      3552      3548      3506
# ... 1596 like lines cut
#---1----|----2----|----3----|----4----|----5----|----6----|----7----|----8----|----9----|---10----|
/PART/15
crash_box_upper
         6         1        15
#---1----|----2----|----3----|----4----|----5----|----6----|----7----|----8----|----9----|---10----|
# SH3N elements of /PART/15/crash_box_upper:
#---1----|----2----|----3----|----4----|----5----|----6----|----7----|----8----|----9----|---10----|
/SH3N/15
      6817     13122     13118     13119
      6818     13165     13161     13162
      6819     13188     13190     13189
      6820     13242     13253     13252
      6821     13236     13265     13264
#---1----|----2----|----3----|----4----|----5----|----6----|----7----|----8----|----9----|---10----|
# SHELL elements of /PART/15/crash_box_upper:
#---1----|----2----|----3----|----4----|----5----|----6----|----7----|----8----|----9----|---10----|
/SHELL/15
     12515     12930     12929     12927     12926
     12516     12922     12930     12926     12923
     12517     12917     12916     12929     12930
     12518     12918     12917     12930     12922
     12519     12931     12884     12883     12928
     12520     12929     12931     12928     12927
     12521     12915     12885     12884     12931
     12522     12916     12915     12931     12929
     12523     12934     12932     12878     12877
     12524     12925     12934     12877     12876
     12525     12935     12933     12932     12934
     12526     12924     12935     12934     12925
     12527     12926     12927     12933     12935
     12528     12923     12926     12935     12924
     12529     12936     12881     12880     12879
     12530     12932     12936     12879     12878
     12531     12937     12882     12881     12936
     12532     12933     12937     12936     12932
     12533     12928     12883     12882     12937
     12534     12927     12928     12937     12933
# ... 569 like lines cut
#---1----|----2----|----3----|----4----|----5----|----6----|----7----|----8----|----9----|---10----|
/PART/16
crash_box_lower
         6         1        15
#---1----|----2----|----3----|----4----|----5----|----6----|----7----|----8----|----9----|---10----|
# SH3N elements of /PART/16/crash_box_lower:
#---1----|----2----|----3----|----4----|----5----|----6----|----7----|----8----|----9----|---10----|
/SH3N/16
      6822     13663     13705     13706
      6823     13722     13735     13734
      6824     13774     13786     13787
      6825     13765     13805     13806
      6826     13833     13835     13834
      6827     13850     13852     13851
#---1----|----2----|----3----|----4----|----5----|----6----|----7----|----8----|----9----|---10----|
# SHELL elements of /PART/16/crash_box_lower:
#---1----|----2----|----3----|----4----|----5----|----6----|----7----|----8----|----9----|---10----|
/SHELL/16
     13070     13520     13526     13524     13521
     13071     13517     13516     13526     13520
     13072     13527     13488     13487     13525
     13073     13526     13527     13525     13524
     13074     13515     13489     13488     13527
     13075     13516     13515     13527     13526
     13076     13528     13522     13521     13524
     13077     13529     13528     13524     13525
     13078     13486     13529     13525     13487
     13079     13523     13530     13482     13481
     13080     13522     13528     13530     13523
     13081     13531     13485     13484     13483
     13082     13530     13531     13483     13482
     13083     13529     13486     13485     13531
     13084     13528     13529     13531     13530
     13085     13474     13534     13532     13475
     13086     13473     13519     13534     13474
     13087     13535     13520     13521     13533
     13088     13534     13535     13533     13532
     13089     13518     13517     13520     13535
# ... 503 like lines cut
#---1----|----2----|----3----|----4----|----5----|----6----|----7----|----8----|----9----|---10----|
/PART/17
BumperBeam_upper
         7         2        14
#---1----|----2----|----3----|----4----|----5----|----6----|----7----|----8----|----9----|---10----|
# SH3N elements of /PART/17/BumperBeam_upper:
#---1----|----2----|----3----|----4----|----5----|----6----|----7----|----8----|----9----|---10----|
/SH3N/17
      6814      9289      9290      9292
#---1----|----2----|----3----|----4----|----5----|----6----|----7----|----8----|----9----|---10----|
# SHELL elements of /PART/17/BumperBeam_upper:
#---1----|----2----|----3----|----4----|----5----|----6----|----7----|----8----|----9----|---10----|
/SHELL/17
      8460      9115      9113      9111      9110
      8461      9106      9115      9110      9107
      8462      9116      9114      9113      9115
      8463      9105      9116      9115      9106
      8464      9100      9099      9114      9116
      8465      9101      9100      9116      9105
      8466      9117      8972      8971      9112
      8467      9113      9117      9112      9111
      8468      9118      8973      8972      9117
      8469      9114      9118      9117      9113
      8470      9098      8974      8973      9118
      8471      9099      9098      9118      9114
      8472      9121      9119      1804      1803
      8473      9109      9121      1803      1802
      8474      9122      9120      9119      9121
      8475      9108      9122      9121      9109
      8476      9110      9111      9120      9122
      8477      9107      9110      9122      9108
      8478      9123      8969      1806      1805
      8479      9119      9123      1805      1804
# ... 793 like lines cut
#---1----|----2----|----3----|----4----|----5----|----6----|----7----|----8----|----9----|---10----|
/PART/18
BumperBeam_mid
         7         2        14
#---1----|----2----|----3----|----4----|----5----|----6----|----7----|----8----|----9----|---10----|
# SH3N elements of /PART/18/BumperBeam_mid:
#---1----|----2----|----3----|----4----|----5----|----6----|----7----|----8----|----9----|---10----|
/SH3N/18
      6816     12377     12382     12380
#---1----|----2----|----3----|----4----|----5----|----6----|----7----|----8----|----9----|---10----|
# SHELL elements of /PART/18/BumperBeam_mid:
#---1----|----2----|----3----|----4----|----5----|----6----|----7----|----8----|----9----|---10----|
/SHELL/18
     11702     12180     12185     12183     12181
     11703     12177     12176     12185     12180
     11704     12186     12170     12169     12184
     11705     12185     12186     12184     12183
     11706     12175     12171     12170     12186
     11707     12176     12175     12186     12185
     11708     12182     12187      8784      8783
     11709     12181     12183     12187     12182
     11710     12188     12168      8786      8785
     11711     12187     12188      8785      8784
     11712     12184     12169     12168     12188
     11713     12183     12184     12188     12187
     11714      4975     12191     12189      4976
     11715      4974     12179     12191      4975
     11716     12192     12180     12181     12190
     11717     12191     12192     12190     12189
     11718     12178     12177     12180     12192
     11719     12179     12178     12192     12191
     11720      4977     12193      8781       276
     11721      4976     12189     12193      4977
# ... 793 like lines cut
#---1----|----2----|----3----|----4----|----5----|----6----|----7----|----8----|----9----|---10----|
/PART/19
BumperBeam_lower
         7         2        14
#---1----|----2----|----3----|----4----|----5----|----6----|----7----|----8----|----9----|---10----|
# SH3N elements of /PART/19/BumperBeam_lower:
#---1----|----2----|----3----|----4----|----5----|----6----|----7----|----8----|----9----|---10----|
/SH3N/19
      6815     10411     10412     10414
#---1----|----2----|----3----|----4----|----5----|----6----|----7----|----8----|----9----|---10----|
# SHELL elements of /PART/19/BumperBeam_lower:
#---1----|----2----|----3----|----4----|----5----|----6----|----7----|----8----|----9----|---10----|
/SHELL/19
      9273      9936      9934      9932      9931
      9274      9927      9936      9931      9928
      9275      9937      9935      9934      9936
      9276      9926      9937      9936      9927
      9277      9921      9920      9935      9937
      9278      9922      9921      9937      9926
      9279      9938      9793      9792      9933
      9280      9934      9938      9933      9932
      9281      9939      9794      9793      9938
      9282      9935      9939      9938      9934
      9283      9919      9795      9794      9939
      9284      9920      9919      9939      9935
      9285      9942      9940      9787      9786
      9286      9930      9942      9786      9785
      9287      9943      9941      9940      9942
      9288      9929      9943      9942      9930
      9289      9931      9932      9941      9943
      9290      9928      9931      9943      9929
      9291      9944      9790      9789      9788
      9292      9940      9944      9788      9787
# ... 793 like lines cut
#---1----|----2----|----3----|----4----|----5----|----6----|----7----|----8----|----9----|---10----|
/PART/20
BumperBeam_front
         7         2        14
#---1----|----2----|----3----|----4----|----5----|----6----|----7----|----8----|----9----|---10----|
# SHELL elements of /PART/20/BumperBeam_front:
#---1----|----2----|----3----|----4----|----5----|----6----|----7----|----8----|----9----|---10----|
/SHELL/20
      6828      7519      7517      7515      7514
      6829      7510      7519      7514      7511
      6830      7520      7518      7517      7519
      6831      7509      7520      7519      7510
      6832      7504      7503      7518      7520
      6833      7505      7504      7520      7509
      6834      7521      7494      7493      7516
      6835      7517      7521      7516      7515
      6836      7522      7495      7494      7521
      6837      7518      7522      7521      7517
      6838      7502      7496      7495      7522
      6839      7503      7502      7522      7518
      6840      7525      7523      7481      7480
      6841      7513      7525      7480      7479
      6842      7526      7524      7523      7525
      6843      7512      7526      7525      7513
      6844      7514      7515      7524      7526
      6845      7511      7514      7526      7512
      6846      7527      7491      7483      7482
      6847      7523      7527      7482      7481
# ... 1612 like lines cut
#---1----|----2----|----3----|----4----|----5----|----6----|----7----|----8----|----9----|---10----|
/PART/21
BumperBeam_rear
         7         2        14
#---1----|----2----|----3----|----4----|----5----|----6----|----7----|----8----|----9----|---10----|
# SHELL elements of /PART/21/BumperBeam_rear:
#---1----|----2----|----3----|----4----|----5----|----6----|----7----|----8----|----9----|---10----|
/SHELL/21
     10086     10706     10704     10702     10701
     10087     10697     10706     10701     10698
     10088     10707     10705     10704     10706
     10089     10696     10707     10706     10697
     10090     10691     10690     10705     10707
     10091     10692     10691     10707     10696
     10092     10708     10681     10680     10703
     10093     10704     10708     10703     10702
     10094     10709     10682     10681     10708
     10095     10705     10709     10708     10704
     10096     10689     10683     10682     10709
     10097     10690     10689     10709     10705
     10098     10712     10710     10668     10667
     10099     10700     10712     10667     10666
     10100     10713     10711     10710     10712
     10101     10699     10713     10712     10700
     10102     10701     10702     10711     10713
     10103     10698     10701     10713     10699
     10104     10714     10678     10670     10669
     10105     10710     10714     10669     10668
# ... 1596 like lines cut
#---1----|----2----|----3----|----4----|----5----|----6----|----7----|----8----|----9----|---10----|
/PART/11
CONNECTION_SPOTWELD
         3         0         0
#---1----|----2----|----3----|----4----|----5----|----6----|----7----|----8----|----9----|---10----|
# SPRING Connexion elements of /PART/11/CONNECTION_SPOTWELD:
#---1----|----2----|----3----|----4----|----5----|----6----|----7----|----8----|----9----|---10----|
/SPRING/11
       193     14382     14383                                        
       194     14384     14385                                        
       195     14386     14387                                        
       196     14388     14389                                        
       197     14390     14391                                        
       198     14392     14393                                        
       199     14394     14395                                        
       200     14396     14397                                        
       201     14398     14399                                        
#---1----|----2----|----3----|----4----|----5----|----6----|----7----|----8----|----9----|---10----|
/PART/12
CONNECTION_SPOTWELD
         4         0         0
#---1----|----2----|----3----|----4----|----5----|----6----|----7----|----8----|----9----|---10----|
# SPRING Connexion elements of /PART/12/CONNECTION_SPOTWELD:
#---1----|----2----|----3----|----4----|----5----|----6----|----7----|----8----|----9----|---10----|
/SPRING/12
       202     14400     14401                                        
       203     14402     14403                                        
       204     14404     14405                                        
       205     14406     14407                                        
       206     14408     14409                                        
       207     14410     14411                                        
       208     14412     14413                                        
       209     14414     14415                                        
       210     14416     14417                                        
#---1----|----2----|----3----|----4----|----5----|----6----|----7----|----8----|----9----|---10----|
/PART/13
CONNECTION_SPOTWELD
         5         0         0
#---1----|----2----|----3----|----4----|----5----|----6----|----7----|----8----|----9----|---10----|
# SPRING Connexion elements of /PART/13/CONNECTION_SPOTWELD:
#---1----|----2----|----3----|----4----|----5----|----6----|----7----|----8----|----9----|---10----|
/SPRING/13
       211     14418     14419                                        
       212     14420     14421                                        
       213     14422     14423                                        
       214     14424     14425                                        
       215     14426     14427                                        
       216     14428     14429                                        
       217     14430     14431                                        
       218     14432     14433                                        
       219     14434     14435                                        
       220     14436     14437                                        
       221     14438     14439                                        
       222     14440     14441                                        
       223     14442     14443                                        
       224     14444     14445                                        
       225     14446     14447                                        
       226     14448     14449                                        
       227     14450     14451                                        
       228     14452     14453                                        
       229     14454     14455                                        
       230     14456     14457                                        
       231     14458     14459                                        
#---1----|----2----|----3----|----4----|----5----|----6----|----7----|----8----|----9----|---10----|
/PART/22
CONNECTION_SPOTWELD
         8         0         0
#---1----|----2----|----3----|----4----|----5----|----6----|----7----|----8----|----9----|---10----|
# SPRING Connexion elements of /PART/22/CONNECTION_SPOTWELD:
#---1----|----2----|----3----|----4----|----5----|----6----|----7----|----8----|----9----|---10----|
/SPRING/22
       175     14346     14347                                        
       176     14348     14349                                        
       177     14350     14351                                        
       178     14352     14353                                        
       179     14354     14355                                        
       180     14356     14357                                        
       181     14358     14359                                        
       182     14360     14361                                        
       183     14362     14363                                        
#---1----|----2----|----3----|----4----|----5----|----6----|----7----|----8----|----9----|---10----|
/PART/23
CONNECTION_SPOTWELD
         9         0         0
#---1----|----2----|----3----|----4----|----5----|----6----|----7----|----8----|----9----|---10----|
# SPRING Connexion elements of /PART/23/CONNECTION_SPOTWELD:
#---1----|----2----|----3----|----4----|----5----|----6----|----7----|----8----|----9----|---10----|
/SPRING/23
       184     14364     14365                                        
       185     14366     14367                                        
       186     14368     14369                                        
       187     14370     14371                                        
       188     14372     14373                                        
       189     14374     14375                                        
       190     14376     14377                                        
       191     14378     14379                                        
       192     14380     14381                                        
#---1----|----2----|----3----|----4----|----5----|----6----|----7----|----8----|----9----|---10----|
/PART/24
CONNECTION_SPOTWELD
        10         0         0
#---1----|----2----|----3----|----4----|----5----|----6----|----7----|----8----|----9----|---10----|
# SPRING Connexion elements of /PART/24/CONNECTION_SPOTWELD:
#---1----|----2----|----3----|----4----|----5----|----6----|----7----|----8----|----9----|---10----|
/SPRING/24
       154     14304     14305                                        
       155     14306     14307                                        
       156     14308     14309                                        
       157     14310     14311                                        
       158     14312     14313                                        
       159     14314     14315                                        
       160     14316     14317                                        
       161     14318     14319                                        
       162     14320     14321                                        
       163     14322     14323                                        
       164     14324     14325                                        
       165     14326     14327                                        
       166     14328     14329                                        
       167     14330     14331                                        
       168     14332     14333                                        
       169     14334     14335                                        
       170     14336     14337                                        
       171     14338     14339                                        
       172     14340     14341                                        
       173     14342     14343                                        
       174     14344     14345                                        
#---1----|----2----|----3----|----4----|----5----|----6----|----7----|----8----|----9----|---10----|
#-  2. SUBSETS:
#---1----|----2----|----3----|----4----|----5----|----6----|----7----|----8----|----9----|---10----|
/SUBSET/11
Bumper_Beam_LHS
#---1----|----2----|----3----|----4----|----5----|----6----|----7----|----8----|----9----|---10----|
/SUBSET/12
Crash_Box_LHS 
#---1----|----2----|----3----|----4----|----5----|----6----|----7----|----8----|----9----|---10----|
/SUBSET/14
Bumper_Beam_LHS
#---1----|----2----|----3----|----4----|----5----|----6----|----7----|----8----|----9----|---10----|
/SUBSET/15
Crash_Box_LHS 
#---1----|----2----|----3----|----4----|----5----|----6----|----7----|----8----|----9----|---10----|
/SUBSET/25
Duplicated parts
        15        14
#---1----|----2----|----3----|----4----|----5----|----6----|----7----|----8----|----9----|---10----|
#-  3. GEOMETRICAL SETS:
#---1----|----2----|----3----|----4----|----5----|----6----|----7----|----8----|----9----|---10----|
/PROP/SHELL/1
Prop_DP600
#   Ishell    Ismstr     Ish3n    Idrill
        24         0         0         0
#                 hm                  hf                  hr                  dm                  dn
                   0                   0                   0                   0                   0
#        N   Istrain               Thick              Ashear              Ithick     Iplas
         5         0                 2.2                   0                   1         1
#---1----|----2----|----3----|----4----|----5----|----6----|----7----|----8----|----9----|---10----|
/PROP/SHELL/2
Prop_DP1000
#   Ishell    Ismstr     Ish3n    Idrill
        24         0         0         0
#                 hm                  hf                  hr                  dm                  dn
                   0                   0                   0                   0                   0
#        N   Istrain               Thick              Ashear              Ithick     Iplas
         5         0                 1.8                   0                   1         1
#---1----|----2----|----3----|----4----|----5----|----6----|----7----|----8----|----9----|---10----|
/PROP/SPR_BEAM/3
SPOTWELD_NO_RUPTURE
#               Mass             Inertia   skew_ID   sens_ID    Isflag     Ifail     Ileng    Ifail2
                .002                 .02         0         0         0         0         0         0
#              KTens               CTens               ATens               BTens               DTens
                 100                   0                   0                   0                   0
#  fct_ID1     HTens   fct_ID2   fct_ID3   fct_ID4                 delta_minTens       delta_maxTens
         2         1         0         0         0                             0                   0
#                  F                   E              Ascale             Hscalex
                   0                   0                   0                   0
#              KTens               CTens               ATens               BTens               DTens
                 500                   0                   0                   0                   0
#  fct_ID1     HTens   fct_ID2   fct_ID3   fct_ID4                 delta_minTens       delta_maxTens
         1         1         0         0         0                             0                   0
#                  F                   E              Ascale             Hscalex
                   0                   0                   0                   0
#              KTens               CTens               ATens               BTens               DTens
                 500                   0                   0                   0                   0
#  fct_ID1     HTens   fct_ID2   fct_ID3   fct_ID4                 delta_minTens       delta_maxTens
         1         1         0         0         0                             0                   0
#                  F                   E              Ascale             Hscalex
                   0                   0                   0                   0
#                  K                   C                   A                   B                   D
                5000                   0                   0                   0                   0
#       N1         H        N2        N3        N4                     theta_min           theta_max
         0         1         0         0         0                             0                   0
#                  F                   E              Ascale             Hscalex
                   0                   0                   0                   0
#                  K                   C                   A                   B                   D
                5000                   0                   0                   0                   0
#       N1         H        N2        N3        N4                     theta_min           theta_max
         0         1         0         0         0                             0                   0
#                  F                   E              Ascale             Hscalex
                   0                   0                   0                   0
#                  K                   C                   A                   B                   D
                5000                   0                   0                   0                   0
#       N1         H        N2        N3        N4                     theta_min           theta_max
         0         1         0         0         0                             0                   0
#                  F                   E              Ascale             Hscalex
                   0                   0                   0                   0
#                 V0              Omega0
                   0                   0
#                  C                   n               alpha                beta
                   0                   0                   0                   0
                   0                   0                   0                   0
                   0                   0                   0                   0
                   0                   0                   0                   0
                   0                   0                   0                   0
                   0                   0                   0                   0
#---1----|----2----|----3----|----4----|----5----|----6----|----7----|----8----|----9----|---10----|
/PROP/SPR_BEAM/4
SPOTWELD_NO_RUPTURE
#               Mass             Inertia   skew_ID   sens_ID    Isflag     Ifail     Ileng    Ifail2
                .002                 .02         0         0         0         0         0         0
#              KTens               CTens               ATens               BTens               DTens
                 100                   0                   0                   0                   0
#  fct_ID1     HTens   fct_ID2   fct_ID3   fct_ID4                 delta_minTens       delta_maxTens
         4         1         0         0         0                             0                   0
#                  F                   E              Ascale             Hscalex
                   0                   0                   0                   0
#              KTens               CTens               ATens               BTens               DTens
                 500                   0                   0                   0                   0
#  fct_ID1     HTens   fct_ID2   fct_ID3   fct_ID4                 delta_minTens       delta_maxTens
         3         1         0         0         0                             0                   0
#                  F                   E              Ascale             Hscalex
                   0                   0                   0                   0
#              KTens               CTens               ATens               BTens               DTens
                 500                   0                   0                   0                   0
#  fct_ID1     HTens   fct_ID2   fct_ID3   fct_ID4                 delta_minTens       delta_maxTens
         3         1         0         0         0                             0                   0
#                  F                   E              Ascale             Hscalex
                   0                   0                   0                   0
#                  K                   C                   A                   B                   D
                5000                   0                   0                   0                   0
#       N1         H        N2        N3        N4                     theta_min           theta_max
         0         1         0         0         0                             0                   0
#                  F                   E              Ascale             Hscalex
                   0                   0                   0                   0
#                  K                   C                   A                   B                   D
                5000                   0                   0                   0                   0
#       N1         H        N2        N3        N4                     theta_min           theta_max
         0         1         0         0         0                             0                   0
#                  F                   E              Ascale             Hscalex
                   0                   0                   0                   0
#                  K                   C                   A                   B                   D
                5000                   0                   0                   0                   0
#       N1         H        N2        N3        N4                     theta_min           theta_max
         0         1         0         0         0                             0                   0
#                  F                   E              Ascale             Hscalex
                   0                   0                   0                   0
#                 V0              Omega0
                   0                   0
#                  C                   n               alpha                beta
                   0                   0                   0                   0
                   0                   0                   0                   0
                   0                   0                   0                   0
                   0                   0                   0                   0
                   0                   0                   0                   0
                   0                   0                   0                   0
#---1----|----2----|----3----|----4----|----5----|----6----|----7----|----8----|----9----|---10----|
/PROP/SPR_BEAM/5
SPOTWELD_NO_RUPTURE
#               Mass             Inertia   skew_ID   sens_ID    Isflag     Ifail     Ileng    Ifail2
                .002                 .02         0         0         0         0         0         0
#              KTens               CTens               ATens               BTens               DTens
                 100                   0                   0                   0                   0
#  fct_ID1     HTens   fct_ID2   fct_ID3   fct_ID4                 delta_minTens       delta_maxTens
         6         1         0         0         0                             0                   0
#                  F                   E              Ascale             Hscalex
                   0                   0                   0                   0
#              KTens               CTens               ATens               BTens               DTens
                 500                   0                   0                   0                   0
#  fct_ID1     HTens   fct_ID2   fct_ID3   fct_ID4                 delta_minTens       delta_maxTens
         5         1         0         0         0                             0                   0
#                  F                   E              Ascale             Hscalex
                   0                   0                   0                   0
#              KTens               CTens               ATens               BTens               DTens
                 500                   0                   0                   0                   0
#  fct_ID1     HTens   fct_ID2   fct_ID3   fct_ID4                 delta_minTens       delta_maxTens
         5         1         0         0         0                             0                   0
#                  F                   E              Ascale             Hscalex
                   0                   0                   0                   0
#                  K                   C                   A                   B                   D
                5000                   0                   0                   0                   0
#       N1         H        N2        N3        N4                     theta_min           theta_max
         0         1         0         0         0                             0                   0
#                  F                   E              Ascale             Hscalex
                   0                   0                   0                   0
#                  K                   C                   A                   B                   D
                5000                   0                   0                   0                   0
#       N1         H        N2        N3        N4                     theta_min           theta_max
         0         1         0         0         0                             0                   0
#                  F                   E              Ascale             Hscalex
                   0                   0                   0                   0
#                  K                   C                   A                   B                   D
                5000                   0                   0                   0                   0
#       N1         H        N2        N3        N4                     theta_min           theta_max
         0         1         0         0         0                             0                   0
#                  F                   E              Ascale             Hscalex
                   0                   0                   0                   0
#                 V0              Omega0
                   0                   0
#                  C                   n               alpha                beta
                   0                   0                   0                   0
                   0                   0                   0                   0
                   0                   0                   0                   0
                   0                   0                   0                   0
                   0                   0                   0                   0
                   0                   0                   0                   0
#---1----|----2----|----3----|----4----|----5----|----6----|----7----|----8----|----9----|---10----|
/PROP/SHELL/6
Prop_DP600
#   Ishell    Ismstr     Ish3n    Idrill
        24         0         0         0
#                 hm                  hf                  hr                  dm                  dn
                   0                   0                   0                   0                   0
#        N   Istrain               Thick              Ashear              Ithick     Iplas
         5         0                 2.2                   0                   1         1
#---1----|----2----|----3----|----4----|----5----|----6----|----7----|----8----|----9----|---10----|
/PROP/SHELL/7
Prop_DP1000
#   Ishell    Ismstr     Ish3n    Idrill
        24         0         0         0
#                 hm                  hf                  hr                  dm                  dn
                   0                   0                   0                   0                   0
#        N   Istrain               Thick              Ashear              Ithick     Iplas
         5         0                 1.8                   0                   1         1
#---1----|----2----|----3----|----4----|----5----|----6----|----7----|----8----|----9----|---10----|
/PROP/SPR_BEAM/8
SPOTWELD_NO_RUPTURE
#               Mass             Inertia   skew_ID   sens_ID    Isflag     Ifail     Ileng    Ifail2
                .002                 .02         0         0         0         0         0         0
#              KTens               CTens               ATens               BTens               DTens
                 100                   0                   0                   0                   0
#  fct_ID1     HTens   fct_ID2   fct_ID3   fct_ID4                 delta_minTens       delta_maxTens
         8         1         0         0         0                             0                   0
#                  F                   E              Ascale             Hscalex
                   0                   0                   0                   0
#              KTens               CTens               ATens               BTens               DTens
                 500                   0                   0                   0                   0
#  fct_ID1     HTens   fct_ID2   fct_ID3   fct_ID4                 delta_minTens       delta_maxTens
         7         1         0         0         0                             0                   0
#                  F                   E              Ascale             Hscalex
                   0                   0                   0                   0
#              KTens               CTens               ATens               BTens               DTens
                 500                   0                   0                   0                   0
#  fct_ID1     HTens   fct_ID2   fct_ID3   fct_ID4                 delta_minTens       delta_maxTens
         7         1         0         0         0                             0                   0
#                  F                   E              Ascale             Hscalex
                   0                   0                   0                   0
#                  K                   C                   A                   B                   D
                5000                   0                   0                   0                   0
#       N1         H        N2        N3        N4                     theta_min           theta_max
         0         1         0         0         0                             0                   0
#                  F                   E              Ascale             Hscalex
                   0                   0                   0                   0
#                  K                   C                   A                   B                   D
                5000                   0                   0                   0                   0
#       N1         H        N2        N3        N4                     theta_min           theta_max
         0         1         0         0         0                             0                   0
#                  F                   E              Ascale             Hscalex
                   0                   0                   0                   0
#                  K                   C                   A                   B                   D
                5000                   0                   0                   0                   0
#       N1         H        N2        N3        N4                     theta_min           theta_max
         0         1         0         0         0                             0                   0
#                  F                   E              Ascale             Hscalex
                   0                   0                   0                   0
#                 V0              Omega0
                   0                   0
#                  C                   n               alpha                beta
                   0                   0                   0                   0
                   0                   0                   0                   0
                   0                   0                   0                   0
                   0                   0                   0                   0
                   0                   0                   0                   0
                   0                   0                   0                   0
#---1----|----2----|----3----|----4----|----5----|----6----|----7----|----8----|----9----|---10----|
/PROP/SPR_BEAM/9
SPOTWELD_NO_RUPTURE
#               Mass             Inertia   skew_ID   sens_ID    Isflag     Ifail     Ileng    Ifail2
                .002                 .02         0         0         0         0         0         0
#              KTens               CTens               ATens               BTens               DTens
                 100                   0                   0                   0                   0
#  fct_ID1     HTens   fct_ID2   fct_ID3   fct_ID4                 delta_minTens       delta_maxTens
        10         1         0         0         0                             0                   0
#                  F                   E              Ascale             Hscalex
                   0                   0                   0                   0
#              KTens               CTens               ATens               BTens               DTens
                 500                   0                   0                   0                   0
#  fct_ID1     HTens   fct_ID2   fct_ID3   fct_ID4                 delta_minTens       delta_maxTens
         9         1         0         0         0                             0                   0
#                  F                   E              Ascale             Hscalex
                   0                   0                   0                   0
#              KTens               CTens               ATens               BTens               DTens
                 500                   0                   0                   0                   0
#  fct_ID1     HTens   fct_ID2   fct_ID3   fct_ID4                 delta_minTens       delta_maxTens
         9         1         0         0         0                             0                   0
#                  F                   E              Ascale             Hscalex
                   0                   0                   0                   0
#                  K                   C                   A                   B                   D
                5000                   0                   0                   0                   0
#       N1         H        N2        N3        N4                     theta_min           theta_max
         0         1         0         0         0                             0                   0
#                  F                   E              Ascale             Hscalex
                   0                   0                   0                   0
#                  K                   C                   A                   B                   D
                5000                   0                   0                   0                   0
#       N1         H        N2        N3        N4                     theta_min           theta_max
         0         1         0         0         0                             0                   0
#                  F                   E              Ascale             Hscalex
                   0                   0                   0                   0
#                  K                   C                   A                   B                   D
                5000                   0                   0                   0                   0
#       N1         H        N2        N3        N4                     theta_min           theta_max
         0         1         0         0         0                             0                   0
#                  F                   E              Ascale             Hscalex
                   0                   0                   0                   0
#                 V0              Omega0
                   0                   0
#                  C                   n               alpha                beta
                   0                   0                   0                   0
                   0                   0                   0                   0
                   0                   0                   0                   0
                   0                   0                   0                   0
                   0                   0                   0                   0
                   0                   0                   0                   0
#---1----|----2----|----3----|----4----|----5----|----6----|----7----|----8----|----9----|---10----|
/PROP/SPR_BEAM/10
SPOTWELD_NO_RUPTURE
#               Mass             Inertia   skew_ID   sens_ID    Isflag     Ifail     Ileng    Ifail2
                .002                 .02         0         0         0         0         0         0
#              KTens               CTens               ATens               BTens               DTens
                 100                   0                   0                   0                   0
#  fct_ID1     HTens   fct_ID2   fct_ID3   fct_ID4                 delta_minTens       delta_maxTens
        12         1         0         0         0                             0                   0
#                  F                   E              Ascale             Hscalex
                   0                   0                   0                   0
#              KTens               CTens               ATens               BTens               DTens
                 500                   0                   0                   0                   0
#  fct_ID1     HTens   fct_ID2   fct_ID3   fct_ID4                 delta_minTens       delta_maxTens
        11         1         0         0         0                             0                   0
#                  F                   E              Ascale             Hscalex
                   0                   0                   0                   0
#              KTens               CTens               ATens               BTens               DTens
                 500                   0                   0                   0                   0
#  fct_ID1     HTens   fct_ID2   fct_ID3   fct_ID4                 delta_minTens       delta_maxTens
        11         1         0         0         0                             0                   0
#                  F                   E              Ascale             Hscalex
                   0                   0                   0                   0
#                  K                   C                   A                   B                   D
                5000                   0                   0                   0                   0
#       N1         H        N2        N3        N4                     theta_min           theta_max
         0         1         0         0         0                             0                   0
#                  F                   E              Ascale             Hscalex
                   0                   0                   0                   0
#                  K                   C                   A                   B                   D
                5000                   0                   0                   0                   0
#       N1         H        N2        N3        N4                     theta_min           theta_max
         0         1         0         0         0                             0                   0
#                  F                   E              Ascale             Hscalex
                   0                   0                   0                   0
#                  K                   C                   A                   B                   D
                5000                   0                   0                   0                   0
#       N1         H        N2        N3        N4                     theta_min           theta_max
         0         1         0         0         0                             0                   0
#                  F                   E              Ascale             Hscalex
                   0                   0                   0                   0
#                 V0              Omega0
                   0                   0
#                  C                   n               alpha                beta
                   0                   0                   0                   0
                   0                   0                   0                   0
                   0                   0                   0                   0
                   0                   0                   0                   0
                   0                   0                   0                   0
                   0                   0                   0                   0
#---1----|----2----|----3----|----4----|----5----|----6----|----7----|----8----|----9----|---10----|
#-  4. FUNCTIONS:
#---1----|----2----|----3----|----4----|----5----|----6----|----7----|----8----|----9----|---10----|
/FUNCT/1
Spotweld shear function
#                  X                   Y
                -250              -25000
                -.25                 -25
                   0                   0
                 .25                  25
                 250               25000
#---1----|----2----|----3----|----4----|----5----|----6----|----7----|----8----|----9----|---10----|
/FUNCT/2
spotweld tensile function
#                  X                   Y
                -250               -8250
                -.25               -8.25
                   0                   0
                 .25                8.25
                 250                8250
#---1----|----2----|----3----|----4----|----5----|----6----|----7----|----8----|----9----|---10----|
/FUNCT/3
Spotweld shear function
#                  X                   Y
                -250              -25000
                -.25                 -25
                   0                   0
                 .25                  25
                 250               25000
#---1----|----2----|----3----|----4----|----5----|----6----|----7----|----8----|----9----|---10----|
/FUNCT/4
spotweld tensile function
#                  X                   Y
                -250               -8250
                -.25               -8.25
                   0                   0
                 .25                8.25
                 250                8250
#---1----|----2----|----3----|----4----|----5----|----6----|----7----|----8----|----9----|---10----|
/FUNCT/5
Spotweld shear function
#                  X                   Y
                -250              -32800
                -.25               -32.8
                   0                   0
                 .25                32.8
                 250               32800
#---1----|----2----|----3----|----4----|----5----|----6----|----7----|----8----|----9----|---10----|
/FUNCT/6
spotweld tensile function
#                  X                   Y
                -250              -10824
                -.25             -10.824
                   0                   0
                 .25              10.824
                 250               10824
#---1----|----2----|----3----|----4----|----5----|----6----|----7----|----8----|----9----|---10----|
/FUNCT/7
Spotweld shear function
#                  X                   Y
                -250              -25000
                -.25                 -25
                   0                   0
                 .25                  25
                 250               25000
#---1----|----2----|----3----|----4----|----5----|----6----|----7----|----8----|----9----|---10----|
/FUNCT/8
spotweld tensile function
#                  X                   Y
                -250               -8250
                -.25               -8.25
                   0                   0
                 .25                8.25
                 250                8250
#---1----|----2----|----3----|----4----|----5----|----6----|----7----|----8----|----9----|---10----|
/FUNCT/9
Spotweld shear function
#                  X                   Y
                -250              -25000
                -.25                 -25
                   0                   0
                 .25                  25
                 250               25000
#---1----|----2----|----3----|----4----|----5----|----6----|----7----|----8----|----9----|---10----|
/FUNCT/10
spotweld tensile function
#                  X                   Y
                -250               -8250
                -.25               -8.25
                   0                   0
                 .25                8.25
                 250                8250
#---1----|----2----|----3----|----4----|----5----|----6----|----7----|----8----|----9----|---10----|
/FUNCT/11
Spotweld shear function
#                  X                   Y
                -250              -32800
                -.25               -32.8
                   0                   0
                 .25                32.8
                 250               32800
#---1----|----2----|----3----|----4----|----5----|----6----|----7----|----8----|----9----|---10----|
/FUNCT/12
spotweld tensile function
#                  X                   Y
                -250              -10824
                -.25             -10.824
                   0                   0
                 .25              10.824
                 250               10824
#---1----|----2----|----3----|----4----|----5----|----6----|----7----|----8----|----9----|---10----|
/FUNCT/13
New FUNCT 13
#                  X                   Y
                   0              .00981
                 100              .00981
#---1----|----2----|----3----|----4----|----5----|----6----|----7----|----8----|----9----|---10----|
#-  5. INITIAL VELOCITIES:
#---1----|----2----|----3----|----4----|----5----|----6----|----7----|----8----|----9----|---10----|
/INIVEL/TRA/1
Initial_Velocity
#                 Vx                  Vy                  Vz   Gnod_id   Skew_id
                  -5                   0                   0        26         0
/GRNOD/GRNOD/26
INIVEL_group_24_of_GRNOD
        25        24
/GRNOD/NODE/25
INIVEL_group_25_of_NODE
     14153
/GRNOD/PART/24
INIVEL_group_26_of_PART
         4         5         6         7         8         9        10        15        16        17
        18        19        20        21
#---1----|----2----|----3----|----4----|----5----|----6----|----7----|----8----|----9----|---10----|
#-  6. ACCELEROMETERS:
#---1----|----2----|----3----|----4----|----5----|----6----|----7----|----8----|----9----|---10----|
/ACCEL/1
ACCELERO_1
#  node_ID   skew_ID                          Fcut
      6701         0                          1.65
#---1----|----2----|----3----|----4----|----5----|----6----|----7----|----8----|----9----|---10----|
/ACCEL/2
ACCELERO_2
#  node_ID   skew_ID                          Fcut
      6649         0                          1.65
#---1----|----2----|----3----|----4----|----5----|----6----|----7----|----8----|----9----|---10----|
#-  7. GRAVITIES:
#---1----|----2----|----3----|----4----|----5----|----6----|----7----|----8----|----9----|---10----|
/GRAV/1
Gravity_Load
#funct_IDT       DIR   skew_ID sensor_ID  grnod_ID                      Ascale_x            Fscale_Y
        13         Z         0         0        23                             1                  -1
/GRNOD/GRNOD/23
GRAV_group_21_of_GRNOD
        22        21
/GRNOD/NODE/22
GRAV_group_22_of_NODE
     14153
/GRNOD/PART/21
GRAV_group_23_of_PART
         4         5         6         7         8         9        10        15        16        17
        18        19        20        21
#---1----|----2----|----3----|----4----|----5----|----6----|----7----|----8----|----9----|---10----|
#-  8. INTERFACES:
#---1----|----2----|----3----|----4----|----5----|----6----|----7----|----8----|----9----|---10----|
/INTER/TYPE7/13
all_vs_all
#  Slav_id   Mast_id      Istf      Ithe      Igap                Ibag      Idel     Icurv      Iadm
        18        17         4         0         2                   0         2         0         0
#          Fscalegap             Gap_max             Fpenmax
                   0                   0                   0
#              Stmin               Stmax          %mesh_size               dtmin  Irem_gap   Irem_i2
                   0                   0                   0                   0         0         0
#              Stfac                Fric              Gapmin              Tstart               Tstop
                   0                  .2                   1                   0                   0
#      IBC                        Inacti                VisS                VisF              Bumult
       000                             6                   0                   0                   0
#    Ifric    Ifiltr               Xfreq     Iform   sens_ID   fct_IDf             AscaleF   fric_ID
         0         0                   0         2         0         0                   0         0
/GRNOD/SURF/18
INTER_group_18_of_SURF
        17
/SURF/PART/17
INTER_group_17_of_PART
         4         5         6         7         8         9        10        15        16        17
        18        19        20        21
#---1----|----2----|----3----|----4----|----5----|----6----|----7----|----8----|----9----|---10----|
/INTER/TYPE2/28
CONNECTION
#  Slav_id   Surf_id    Ignore  Spotflag     Level   Isearch      Idel                       Dsearch
        55        61         0         1         0         0         0                             0
/GRNOD/NODE/55
GROUP 55 FOR CONNECTION
     14304     14306     14308     14310     14312     14314     14316     14318     14320     14322
     14324     14326     14328     14330     14332     14334     14336     14338     14340     14342
     14344
/SURF/PART/61
GROUP       61 FOR CONNECTION
        15
#---1----|----2----|----3----|----4----|----5----|----6----|----7----|----8----|----9----|---10----|
/INTER/TYPE2/29
CONNECTION
#  Slav_id   Surf_id    Ignore  Spotflag     Level   Isearch      Idel                       Dsearch
        56        62         0         1         0         0         0                             0
/GRNOD/NODE/56
GROUP 56 FOR CONNECTION
     14305     14307     14309     14311     14313     14315     14317     14319     14321     14323
     14325     14327     14329     14331     14333     14335     14337     14339     14341     14343
     14345
/SURF/PART/62
GROUP       62 FOR CONNECTION
        16
#---1----|----2----|----3----|----4----|----5----|----6----|----7----|----8----|----9----|---10----|
/INTER/TYPE2/30
CONNECTION
#  Slav_id   Surf_id    Ignore  Spotflag     Level   Isearch      Idel                       Dsearch
        63        67         0         1         0         0         0                             0
/GRNOD/NODE/63
GROUP 63 FOR CONNECTION
     14346     14348     14350     14352     14354     14356     14358     14360     14362
/SURF/PART/67
GROUP       67 FOR CONNECTION
        16
#---1----|----2----|----3----|----4----|----5----|----6----|----7----|----8----|----9----|---10----|
/INTER/TYPE2/31
CONNECTION
#  Slav_id   Surf_id    Ignore  Spotflag     Level   Isearch      Idel                       Dsearch
        64        68         0         1         0         0         0                             0
/GRNOD/NODE/64
GROUP 64 FOR CONNECTION
     14347     14349     14351     14353     14355     14357     14359     14361     14363
/SURF/PART/68
GROUP       68 FOR CONNECTION
        21
#---1----|----2----|----3----|----4----|----5----|----6----|----7----|----8----|----9----|---10----|
/INTER/TYPE2/32
CONNECTION
#  Slav_id   Surf_id    Ignore  Spotflag     Level   Isearch      Idel                       Dsearch
        65        69         0         1         0         0         0                             0
/GRNOD/NODE/65
GROUP 65 FOR CONNECTION
     14364     14366     14368     14370     14372     14374     14376     14378     14380
/SURF/PART/69
GROUP       69 FOR CONNECTION
        15
#---1----|----2----|----3----|----4----|----5----|----6----|----7----|----8----|----9----|---10----|
/INTER/TYPE2/33
CONNECTION
#  Slav_id   Surf_id    Ignore  Spotflag     Level   Isearch      Idel                       Dsearch
        66        70         0         1         0         0         0                             0
/GRNOD/NODE/66
GROUP 66 FOR CONNECTION
     14365     14367     14369     14371     14373     14375     14377     14379     14381
/SURF/PART/70
GROUP       70 FOR CONNECTION
        21
#---1----|----2----|----3----|----4----|----5----|----6----|----7----|----8----|----9----|---10----|
/INTER/TYPE2/34
CONNECTION
#  Slav_id   Surf_id    Ignore  Spotflag     Level   Isearch      Idel                       Dsearch
        71        77         0         1         0         0         0                             0
/GRNOD/NODE/71
GROUP 71 FOR CONNECTION
     14382     14384     14386     14388     14390     14392     14394     14396     14398
/SURF/PART/77
GROUP       77 FOR CONNECTION
         5
#---1----|----2----|----3----|----4----|----5----|----6----|----7----|----8----|----9----|---10----|
/INTER/TYPE2/35
CONNECTION
#  Slav_id   Surf_id    Ignore  Spotflag     Level   Isearch      Idel                       Dsearch
        72        78         0         1         0         0         0                             0
/GRNOD/NODE/72
GROUP 72 FOR CONNECTION
     14383     14385     14387     14389     14391     14393     14395     14397     14399
/SURF/PART/78
GROUP       78 FOR CONNECTION
        10
#---1----|----2----|----3----|----4----|----5----|----6----|----7----|----8----|----9----|---10----|
/INTER/TYPE2/36
CONNECTION
#  Slav_id   Surf_id    Ignore  Spotflag     Level   Isearch      Idel                       Dsearch
        73        79         0         1         0         0         0                             0
/GRNOD/NODE/73
GROUP 73 FOR CONNECTION
     14400     14402     14404     14406     14408     14410     14412     14414     14416
/SURF/PART/79
GROUP       79 FOR CONNECTION
         4
#---1----|----2----|----3----|----4----|----5----|----6----|----7----|----8----|----9----|---10----|
/INTER/TYPE2/37
CONNECTION
#  Slav_id   Surf_id    Ignore  Spotflag     Level   Isearch      Idel                       Dsearch
        74        80         0         1         0         0         0                             0
/GRNOD/NODE/74
GROUP 74 FOR CONNECTION
     14401     14403     14405     14407     14409     14411     14413     14415     14417
/SURF/PART/80
GROUP       80 FOR CONNECTION
        10
#---1----|----2----|----3----|----4----|----5----|----6----|----7----|----8----|----9----|---10----|
/INTER/TYPE2/38
CONNECTION
#  Slav_id   Surf_id    Ignore  Spotflag     Level   Isearch      Idel                       Dsearch
        75        81         0         1         0         0         0                             0
/GRNOD/NODE/75
GROUP 75 FOR CONNECTION
     14418     14420     14422     14424     14426     14428     14430     14432     14434     14436
     14438     14440     14442     14444     14446     14448     14450     14452     14454     14456
     14458
/SURF/PART/81
GROUP       81 FOR CONNECTION
         4
#---1----|----2----|----3----|----4----|----5----|----6----|----7----|----8----|----9----|---10----|
/INTER/TYPE2/39
CONNECTION
#  Slav_id   Surf_id    Ignore  Spotflag     Level   Isearch      Idel                       Dsearch
        76        82         0         1         0         0         0                             0
/GRNOD/NODE/76
GROUP 76 FOR CONNECTION
     14419     14421     14423     14425     14427     14429     14431     14433     14435     14437
     14439     14441     14443     14445     14447     14449     14451     14453     14455     14457
     14459
/SURF/PART/82
GROUP       82 FOR CONNECTION
         5
#---1----|----2----|----3----|----4----|----5----|----6----|----7----|----8----|----9----|---10----|
#-  9. RIGID WALLS:
#---1----|----2----|----3----|----4----|----5----|----6----|----7----|----8----|----9----|---10----|
/RWALL/CYL/1
RWALL
#  node_ID     Slide grnod_ID1 grnod_ID2
                   2         0         0
#           D_search                fric            Diameter                ffac       ifq
                 200                  .2                 254                   0         0
#                 XM                  YM                  ZM
                -170                   0                   0
#               X_M1                Y_M1                Z_M1
                -170                   0                   1
#---1----|----2----|----3----|----4----|----5----|----6----|----7----|----8----|----9----|---10----|
#- 10. RIGID BODIES:
#---1----|----2----|----3----|----4----|----5----|----6----|----7----|----8----|----9----|---10----|
/RBODY/1
Body_in_White
#     RBID     ISENS     NSKEW    ISPHER                MASS   Gnod_id     IKREM      ICOG   Surf_id
     14153         0         0         0                 500        19         0         0         0
#                Jxx                 Jyy                 Jzz
                  50                  50                  50
#                Jxy                 Jyz                 Jxz
                  50                  50                  50
#  Ioptoff   Iexpams
         0         0
/GRNOD/NODE/19
RBODY_group_19_of_NODE
      5891      5939      5940      5941      5942      5943      5944      5945      5946      6102
      6103      6104      6105      6106      6107      6108      6109      6110      6111      6112
      6113      6313      6314      6315      6316      6317      6318      6319      6320      6517
      6518      6519      6520      6521      6522      6523      6644      6645      6646      6647
      6648      6649      6650      6651      6652      6653      6654      6655      6894      6895
      6896      6897      6898      6899     12852     12900     12901     12902     12903     12904
     12905     12906     12907     13063     13064     13065     13066     13067     13068     13069
     13070     13071     13072     13073     13074     13274     13275     13276     13277     13278
     13279     13280     13281     13478     13479     13480     13481     13482     13483     13484
     13605     13606     13607     13608     13609     13610     13611     13612     13613     13614
     13615     13616     13855     13856     13857     13858     13859     13860
#---1----|----2----|----3----|----4----|----5----|----6----|----7----|----8----|----9----|---10----|
#- 11. SECTIONS:
#---1----|----2----|----3----|----4----|----5----|----6----|----7----|----8----|----9----|---10----|
/SECT/1
New SECT 1
# node_ID1  node_ID2  node_ID3  grnod_ID    I_SAVE  Frame_ID                  Dt               alpha
      6022      6023      6710        30         0         0                  .1                1.65
# File name
                                                                                                    
# grbricID           grshel_ID  grrus_ID grbeam_ID grsprinID grtrianID    Ninter              Iframe
         0                  29         0         0         0         0         0                  12
/GRNOD/NODE/30
SECTION
      5896      5934      6017      6018      6019      6020      6021      6022      6023      6096
      6135      6140      6141      6142      6143      6144      6183      6184      6185      6186
      6187      6344      6396      6406      6408      6410      6421      6423      6425      6512
      6528      6554      6555      6556      6557      6558      6661      6701      6706      6707
      6708      6709      6710      6756      6757      6758      6759      6760      6905      6961
      6968      6970      6978      6980
/GRSHEL/SHEL/29
SECTION
      5773      5774      5777      5778      5793      5794      5797      5798      5852      5855
      5856      5867      5870      5871      5910      5913      5914      5925      5928      5929
      6129      6130      6135      6136      6153      6154      6159      6160      6290      6292
      6293      6305      6307      6308      6372      6375      6376      6387      6390      6391
      6447      6448      6449      6456      6457      6458      6652      6657      6659      6670
      6675      6677
#---1----|----2----|----3----|----4----|----5----|----6----|----7----|----8----|----9----|---10----|
#- 12. 4 NODE SHELL GROUPS:
#---1----|----2----|----3----|----4----|----5----|----6----|----7----|----8----|----9----|---10----|
/GRSHEL/SHEL/27
SECTION
      5819      5820      5825      5826      5839      5840      5845      5846      5888      5890
      5891      5903      5905      5906      5949      5951      5952      5964      5966      5967
      6127      6128      6133      6134      6151      6152      6157      6158      6252      6255
      6256      6267      6270      6271      6410      6413      6414      6428      6431      6432
      6474      6476      6477      6489      6491      6492      6651      6654      6655      6669
      6672      6673
#---1----|----2----|----3----|----4----|----5----|----6----|----7----|----8----|----9----|---10----|
#- 13. NODE GROUPS:
#---1----|----2----|----3----|----4----|----5----|----6----|----7----|----8----|----9----|---10----|
/GRNOD/NODE/28
SECTION
      5895      5935      6055      6062      6064      6066      6074      6076      6078      6097
      6136      6166      6173      6174      6181      6182      6210      6219      6220      6227
      6228      6345      6357      6358      6359      6360      6361      6362      6363      6513
      6527      6559      6565      6566      6573      6574      6660      6702      6735      6742
      6744      6752      6754      6782      6789      6790      6797      6798      6904      6932
      6933      6934      6935      6936
#---1----|----2----|----3----|----4----|----5----|----6----|----7----|----8----|----9----|---10----|
#- 14. TIME HISTORIES:
#---1----|----2----|----3----|----4----|----5----|----6----|----7----|----8----|----9----|---10----|
/TH/INTER/1
TH INTER
#     var1      var2      var3      var4      var5      var6      var7      var8      var9     var10
DEF       
#     Obj1      Obj2      Obj3      Obj4      Obj5      Obj6      Obj7      Obj8      Obj9     Obj10
        13
#---1----|----2----|----3----|----4----|----5----|----6----|----7----|----8----|----9----|---10----|
/TH/RBODY/3
TH RBODY
#     var1      var2      var3      var4      var5      var6      var7      var8      var9     var10
DEF       
#     Obj1      Obj2      Obj3      Obj4      Obj5      Obj6      Obj7      Obj8      Obj9     Obj10
         1
#---1----|----2----|----3----|----4----|----5----|----6----|----7----|----8----|----9----|---10----|
/TH/RWALL/4
TH RWALL
#     var1      var2      var3      var4      var5      var6      var7      var8      var9     var10
DEF       
#     Obj1      Obj2      Obj3      Obj4      Obj5      Obj6      Obj7      Obj8      Obj9     Obj10
         1
#---1----|----2----|----3----|----4----|----5----|----6----|----7----|----8----|----9----|---10----|
/TH/ACCEL/5
TH ACCEL
#     var1      var2      var3      var4      var5      var6      var7      var8      var9     var10
DEF       
#     Obj1      Obj2      Obj3      Obj4      Obj5      Obj6      Obj7      Obj8      Obj9     Obj10
         1         2
#---1----|----2----|----3----|----4----|----5----|----6----|----7----|----8----|----9----|---10----|
/TH/SECTIO/6
TH SECTIO
#     var1      var2      var3      var4      var5      var6      var7      var8      var9     var10
DEF       
#     Obj1      Obj2      Obj3      Obj4      Obj5      Obj6      Obj7      Obj8      Obj9     Obj10
         1
#---1----|----2----|----3----|----4----|----5----|----6----|----7----|----8----|----9----|---10----|
/END
#---1----|----2----|----3----|----4----|----5----|----6----|----7----|----8----|----9----|---10----|
